J13 offshore wind hydrogen - figshare/PSSERaw_from_Dutrain.raw
0, 100, 33, 0, 0, 60  / 27-Nov-2023 11:35:35 - MATPOWER 7.1


     1, 'BALLY_220_1 ',       220, 3,    1,    1, 1,           1,           0, 1.05, 0.95, 1.05, 0.95
     2, 'BALLY_220_HV',       220, 1,    1,    1, 1,           1,           0, 1.05, 0.95, 1.05, 0.95
     3, 'TRG_220_2   ',       220, 1,    1,    1, 1, 0.993181818,          -0, 1.05, 0.95, 1.05, 0.95
     4, 'TRG_110_1   ',       110, 1,    1,    1, 1,  1.01181818,          -0, 1.05, 0.95, 1.05, 0.95
     5, 'TRG_220_1   ',       220, 1,    1,    1, 1, 0.993181818,          -0, 1.05, 0.95, 1.05, 0.95
     6, 'LOU_220_2   ',       220, 1,    1,    1, 1, 0.989545455,          -0, 1.05, 0.95, 1.05, 0.95
     7, 'LOU_220_1   ',       220, 1,    1,    1, 1, 0.989545455,          -0, 1.05, 0.95, 1.05, 0.95
     8, 'FLA_220_1   ',       220, 1,    1,    1, 1, 0.986818182,          -0, 1.05, 0.95, 1.05, 0.95
     9, 'FLA_220_2   ',       220, 1,    1,    1, 1, 0.986818182,          -0, 1.05, 0.95, 1.05, 0.95
    10, 'CSH_220_1   ',       220, 1,    1,    1, 1,  1.00090909,           0, 1.05, 0.95, 1.05, 0.95
    11, 'CSH_220_2   ',       220, 1,    1,    1, 1,  1.00090909,           0, 1.05, 0.95, 1.05, 0.95
    12, 'PRO_220_1   ',       220, 1,    1,    1, 1,  1.00363636,           0, 1.05, 0.95, 1.05, 0.95
    13, 'MP_220_2    ',       220, 1,    1,    1, 1,  1.00409091,           0, 1.05, 0.95, 1.05, 0.95
    14, 'MP_220_1    ',       220, 1,    1,    1, 1,  1.00409091,           0, 1.05, 0.95, 1.05, 0.95
    15, 'KPG_220_1   ',       220, 1,    1,    1, 1,  1.00227273,           0, 1.05, 0.95, 1.05, 0.95
    16, 'KLN_220_2   ',       220, 1,    1,    1, 1, 0.996363636,           0, 1.05, 0.95, 1.05, 0.95
    17, 'KLN_220_1   ',       220, 1,    1,    1, 1, 0.996363636,           0, 1.05, 0.95, 1.05, 0.95
    18, 'SH_220_1    ',       220, 1,    1,    1, 1, 0.985909091,           0, 1.05, 0.95, 1.05, 0.95
    19, 'SH_220_2    ',       220, 1,    1,    1, 1, 0.985909091,           0, 1.05, 0.95, 1.05, 0.95
    20, 'MAY_220_2   ',       220, 1,    1,    1, 1, 0.979090909,          -0, 1.05, 0.95, 1.05, 0.95
    21, 'DSN_220_1   ',       220, 1,    1,    1, 1, 0.992272727,           0, 1.05, 0.95, 1.05, 0.95
    22, 'DSN_220_2   ',       220, 1,    1,    1, 1, 0.992272727,           0, 1.05, 0.95, 1.05, 0.95
    23, 'KLS_220_2   ',       220, 1,    1,    1, 1, 0.987727273,           0, 1.05, 0.95, 1.05, 0.95
    24, 'KLS_220_1   ',       220, 1,    1,    1, 1, 0.987272727,           0, 1.05, 0.95, 1.05, 0.95
    25, 'GI_220_1    ',       220, 1,    1,    1, 1, 0.993181818,           0, 1.05, 0.95, 1.05, 0.95
    26, 'GI_20_GI4   ',        20, 2,    1,    1, 1,           1,           0, 1.05, 0.95, 1.05, 0.95
    27, 'CUL_220_1   ',       220, 1,    1,    1, 1, 0.988636364,           0, 1.05, 0.95, 1.05, 0.95
    28, 'KRA_220_1   ',       220, 1,    1,    1, 1,  1.00409091,           0, 1.05, 0.95, 1.05, 0.95
    29, 'RAF_220_1   ',       220, 1,    1,    1, 1,  1.00909091,           0, 1.05, 0.95, 1.05, 0.95
    30, 'GGO_220_2   ',       220, 1,    1,    1, 1,  1.00863636,           0, 1.05, 0.95, 1.05, 0.95
    31, 'GGO_220_1   ',       220, 1,    1,    1, 1,  1.00863636,           0, 1.05, 0.95, 1.05, 0.95
    32, 'GGO_20_WG   ',        20, 2,    1,    1, 1,           1,           0, 1.05, 0.95, 1.05, 0.95
    33, 'AD_220_2    ',       220, 1,    1,    1, 1,  1.00863636,           0, 1.05, 0.95, 1.05, 0.95
    34, 'AD_20_AT4   ',        20, 1,    1,    1, 1,        1.01,           0, 1.05, 0.95, 1.05, 0.95
    35, 'AD_20_AT2   ',        20, 2,    1,    1, 1,           1,           0, 1.05, 0.95, 1.05, 0.95
    36, 'AD_20_AT1   ',        20, 2,    1,    1, 1,           1,           0, 1.05, 0.95, 1.05, 0.95
    37, 'KRA_220_2   ',       220, 1,    1,    1, 1,  1.00409091,           0, 1.05, 0.95, 1.05, 0.95
    38, 'KRA_110_2   ',       110, 1,    1,    1, 1, 0.982727273,           0, 1.05, 0.95, 1.05, 0.95
    39, 'KBY_110_2   ',       110, 1,    1,    1, 1, 0.979090909,           0, 1.05, 0.95, 1.05, 0.95
    40, 'MR_110_2    ',       110, 1,    1,    1, 1, 0.979090909,           0, 1.05, 0.95, 1.05, 0.95
    41, 'TBG_110_2   ',       110, 1,    1,    1, 1, 0.979090909,           0, 1.05, 0.95, 1.05, 0.95
    42, 'TBG_10_TBG  ',        10, 1,    1,    1, 1,        0.98,           0, 1.05, 0.95, 1.05, 0.95
    43, 'RAF_110_1   ',       110, 1,    1,    1, 1, 0.983636364,           0, 1.05, 0.95, 1.05, 0.95
    44, 'RAF_110_CAPA',       110, 1,    1,    1, 1, 0.983636364,           0, 1.05, 0.95, 1.05, 0.95
    45, 'COW_110_1   ',       110, 1,    1,    1, 1,        0.98,           0, 1.05, 0.95, 1.05, 0.95
    46, 'WHI_110_1   ',       110, 1,    1,    1, 1, 0.979090909,           0, 1.05, 0.95, 1.05, 0.95
    47, 'MID_110_1   ',       110, 1,    1,    1, 1, 0.973636364,           0, 1.05, 0.95, 1.05, 0.95
    48, 'MID_110_WP  ',       110, 1,    1,    1, 1, 0.973636364,           0, 1.05, 0.95, 1.05, 0.95
    49, 'MID_110_2   ',       110, 1,    1,    1, 1, 0.973636364,           0, 1.05, 0.95, 1.05, 0.95
    50, 'KRA_110_1   ',       110, 1,    1,    1, 1, 0.982727273,           0, 1.05, 0.95, 1.05, 0.95
    51, 'KBY_110_1   ',       110, 1,    1,    1, 1, 0.979090909,           0, 1.05, 0.95, 1.05, 0.95
    52, 'KBY_110_WP  ',       110, 1,    1,    1, 1, 0.979090909,           0, 1.05, 0.95, 1.05, 0.95
    53, 'MAL_110_1   ',       110, 1,    1,    1, 1, 0.986363636,           0, 1.05, 0.95, 1.05, 0.95
    54, 'CHA_110_2   ',       110, 1,    1,    1, 1,           1,           0, 1.05, 0.95, 1.05, 0.95
    55, 'CHA_110_WP  ',       110, 2,    1,    1, 1,           1,           0, 1.05, 0.95, 1.05, 0.95
    56, 'CHA_110_1   ',       110, 1,    1,    1, 1,           1,           0, 1.05, 0.95, 1.05, 0.95
    57, 'GLE_110_1   ',       110, 1,    1,    1, 1,           1,           0, 1.05, 0.95, 1.05, 0.95
    58, 'KCR_110_1   ',       110, 1,    1,    1, 1,           1,           0, 1.05, 0.95, 1.05, 0.95
    59, 'KCR_110_WP  ',       110, 2,    1,    1, 1,           1,           0, 1.05, 0.95, 1.05, 0.95
    60, 'KCR_110_2   ',       110, 1,    1,    1, 1,           1,           0, 1.05, 0.95, 1.05, 0.95
    61, 'KCR_10_2    ',        10, 1,    1,    1, 1,        1.02,           0, 1.05, 0.95, 1.05, 0.95
    62, 'KCR_10_1    ',        10, 1,    1,    1, 1,        1.02,           0, 1.05, 0.95, 1.05, 0.95
    63, 'GLE_110_2   ',       110, 1,    1,    1, 1,           1,           0, 1.05, 0.95, 1.05, 0.95
    64, 'GLE_110_WP  ',       110, 2,    1,    1, 1,           1,           0, 1.05, 0.95, 1.05, 0.95
    65, 'BYH_110_1   ',       110, 1,    1,    1, 1,           1,           0, 1.05, 0.95, 1.05, 0.95
    66, 'BYH_220_1   ',       220, 1,    1,    1, 1,  1.01227273,           0, 1.05, 0.95, 1.05, 0.95
    67, 'BYH_220_2   ',       220, 1,    1,    1, 1,  1.01227273,           0, 1.05, 0.95, 1.05, 0.95
    68, 'BVK_220_1   ',       220, 1,    1,    1, 1,  1.01181818,           0, 1.05, 0.95, 1.05, 0.95
    69, 'CLA_220_1   ',       220, 1,    1,    1, 1,  1.01363636,           0, 1.05, 0.95, 1.05, 0.95
    70, 'CLA_220_2   ',       220, 1,    1,    1, 1,  1.01363636,           0, 1.05, 0.95, 1.05, 0.95
    71, 'CLA_110_2   ',       110, 1,    1,    1, 1, 0.998181818,           0, 1.05, 0.95, 1.05, 0.95
    72, 'DMY_110_2   ',       110, 1,    1,    1, 1,           1,           0, 1.05, 0.95, 1.05, 0.95
    73, 'DMY_110_CAPA',       110, 1,    1,    1, 1,           1,           0, 1.05, 0.95, 1.05, 0.95
    74, 'BAN_110_1   ',       110, 1,    1,    1, 1, 0.996363636,           0, 1.05, 0.95, 1.05, 0.95
    75, 'BRI_110_1   ',       110, 1,    1,    1, 1, 0.996363636,           0, 1.05, 0.95, 1.05, 0.95
    76, 'BRI_110_2   ',       110, 1,    1,    1, 1, 0.996363636,           0, 1.05, 0.95, 1.05, 0.95
    77, 'BAN_110_2   ',       110, 1,    1,    1, 1, 0.996363636,           0, 1.05, 0.95, 1.05, 0.95
    78, 'BAN_110_CAPA',       110, 1,    1,    1, 1, 0.996363636,           0, 1.05, 0.95, 1.05, 0.95
    79, 'BAN_110_WP  ',       110, 1,    1,    1, 1, 0.996363636,           0, 1.05, 0.95, 1.05, 0.95
    80, 'BAN_10_2    ',        10, 1,    1,    1, 1,        0.99,           0, 1.05, 0.95, 1.05, 0.95
    81, 'BRI_10_2    ',        10, 1,    1,    1, 1,        0.99,           0, 1.05, 0.95, 1.05, 0.95
    82, 'BRI_10_1    ',        10, 1,    1,    1, 1,        0.99,           0, 1.05, 0.95, 1.05, 0.95
    83, 'BAN_10_1    ',        10, 1,    1,    1, 1,        0.99,           0, 1.05, 0.95, 1.05, 0.95
    84, 'DMY_110_1   ',       110, 1,    1,    1, 1,           1,           0, 1.05, 0.95, 1.05, 0.95
    85, 'DMY_110_WP  ',       110, 2,    1,    1, 1,           1,           0, 1.05, 0.95, 1.05, 0.95
    86, 'BLI_110_1   ',       110, 1,    1,    1, 1,           1,           0, 1.05, 0.95, 1.05, 0.95
    87, 'BLI_110_WP  ',       110, 2,    1,    1, 1,           1,           0, 1.05, 0.95, 1.05, 0.95
    88, 'BLI_110_2   ',       110, 1,    1,    1, 1,           1,           0, 1.05, 0.95, 1.05, 0.95
    89, 'BLI_10_2    ',        10, 1,    1,    1, 1,        1.01,           0, 1.05, 0.95, 1.05, 0.95
    90, 'BLI_10_1    ',        10, 1,    1,    1, 1,        1.01,           0, 1.05, 0.95, 1.05, 0.95
    91, 'MAC_110_1   ',       110, 1,    1,    1, 1, 0.997272727,           0, 1.05, 0.95, 1.05, 0.95
    92, 'MAC_110_WP  ',       110, 1,    1,    1, 1, 0.997272727,           0, 1.05, 0.95, 1.05, 0.95
    93, 'IA_110_1    ',       110, 1,    1,    1, 1, 0.986363636,           0, 1.05, 0.95, 1.05, 0.95
    94, 'IA_10_LE3   ',        10, 2,    1,    1, 1,           1,           0, 1.05, 0.95, 1.05, 0.95
    95, 'IA_10_LE2   ',        10, 2,    1,    1, 1,           1,           0, 1.05, 0.95, 1.05, 0.95
    96, 'CRO_110_2   ',       110, 1,    1,    1, 1, 0.984545455,           0, 1.05, 0.95, 1.05, 0.95
    97, 'CRO_110_1   ',       110, 1,    1,    1, 1, 0.984545455,           0, 1.05, 0.95, 1.05, 0.95
    98, 'CRO_10_1    ',        10, 1,    1,    1, 1,           1,           0, 1.05, 0.95, 1.05, 0.95
    99, 'CRO_10_2    ',        10, 1,    1,    1, 1,           1,           0, 1.05, 0.95, 1.05, 0.95
   100, 'IA_110_2    ',       110, 1,    1,    1, 1, 0.986363636,           0, 1.05, 0.95, 1.05, 0.95
   101, 'IA_10_2     ',        10, 1,    1,    1, 1,           1,           0, 1.05, 0.95, 1.05, 0.95
   102, 'IA_10_1     ',        10, 1,    1,    1, 1,           1,           0, 1.05, 0.95, 1.05, 0.95
   103, 'CD_110_2    ',       110, 1,    1,    1, 1, 0.996363636,           0, 1.05, 0.95, 1.05, 0.95
   104, 'CD_110_1    ',       110, 1,    1,    1, 1, 0.996363636,           0, 1.05, 0.95, 1.05, 0.95
   105, 'CD_10_LE1   ',        10, 2,    1,    1, 1,           1,           0, 1.05, 0.95, 1.05, 0.95
   106, 'CD_10_1     ',        10, 1,    1,    1, 1,        1.01,           0, 1.05, 0.95, 1.05, 0.95
   107, 'CD_10_2     ',        10, 1,    1,    1, 1,        1.01,           0, 1.05, 0.95, 1.05, 0.95
   108, 'CLA_110_1   ',       110, 1,    1,    1, 1, 0.998181818,           0, 1.05, 0.95, 1.05, 0.95
   109, 'BGH_110_1   ',       110, 1,    1,    1, 1,           1,           0, 1.05, 0.95, 1.05, 0.95
   110, 'BGH_110_WP  ',       110, 2,    1,    1, 1,           1,           0, 1.05, 0.95, 1.05, 0.95
   111, 'BGH_110_2   ',       110, 1,    1,    1, 1,           1,           0, 1.05, 0.95, 1.05, 0.95
   112, 'BGH_10_2    ',        10, 1,    1,    1, 1,        1.02,           0, 1.05, 0.95, 1.05, 0.95
   113, 'BGH_10_1    ',        10, 1,    1,    1, 1,        1.02,           0, 1.05, 0.95, 1.05, 0.95
   114, 'MAC_110_2   ',       110, 1,    1,    1, 1, 0.997272727,           0, 1.05, 0.95, 1.05, 0.95
   115, 'MAC_10_2    ',        10, 1,    1,    1, 1,        1.01,           0, 1.05, 0.95, 1.05, 0.95
   116, 'MAC_10_1    ',        10, 1,    1,    1, 1,        1.01,           0, 1.05, 0.95, 1.05, 0.95
   117, 'DMY_10_1    ',        10, 1,    1,    1, 1,        1.01,           0, 1.05, 0.95, 1.05, 0.95
   118, 'DMY_10_2    ',        10, 1,    1,    1, 1,        1.01,           0, 1.05, 0.95, 1.05, 0.95
   119, 'CKN_110_2   ',       110, 1,    1,    1, 1, 0.997272727,           0, 1.05, 0.95, 1.05, 0.95
   120, 'CGL_110_1   ',       110, 1,    1,    1, 1,           1,           0, 1.05, 0.95, 1.05, 0.95
   121, 'CGL_110_WP  ',       110, 2,    1,    1, 1,           1,           0, 1.05, 0.95, 1.05, 0.95
   122, 'GAE_110_1   ',       110, 1,    1,    1, 1,           1,           0, 1.05, 0.95, 1.05, 0.95
   123, 'GAE_110_WP  ',       110, 2,    1,    1, 1,           1,           0, 1.05, 0.95, 1.05, 0.95
   124, 'GAE_110_2   ',       110, 1,    1,    1, 1,           1,           0, 1.05, 0.95, 1.05, 0.95
   125, 'GAE_10_2    ',        10, 1,    1,    1, 1,        1.02,           0, 1.05, 0.95, 1.05, 0.95
   126, 'GAE_10_1    ',        10, 1,    1,    1, 1,        1.02,           0, 1.05, 0.95, 1.05, 0.95
   127, 'CGL_110_2   ',       110, 1,    1,    1, 1,           1,           0, 1.05, 0.95, 1.05, 0.95
   128, 'CGL_20_2    ',        20, 1,    1,    1, 1,           1,           0, 1.05, 0.95, 1.05, 0.95
   129, 'CGL_20_CAPAC',        20, 1,    1,    1, 1,           1,           0, 1.05, 0.95, 1.05, 0.95
   130, 'CGL_20_1    ',        20, 1,    1,    1, 1,       1.005,           0, 1.05, 0.95, 1.05, 0.95
   131, 'CGL_20_CAPAC',        20, 1,    1,    1, 1,       1.005,           0, 1.05, 0.95, 1.05, 0.95
   132, 'CGL_20_CAPAC',        20, 1,    1,    1, 1,       1.005,           0, 1.05, 0.95, 1.05, 0.95
   133, 'CKN_110_1   ',       110, 1,    1,    1, 1, 0.997272727,           0, 1.05, 0.95, 1.05, 0.95
   134, 'GRO_110_1   ',       110, 1,    1,    1, 1, 0.999090909,           0, 1.05, 0.95, 1.05, 0.95
   135, 'GRO_110_WP  ',       110, 1,    1,    1, 1, 0.999090909,           0, 1.05, 0.95, 1.05, 0.95
   136, 'GRO_110_2   ',       110, 1,    1,    1, 1, 0.998181818,           0, 1.05, 0.95, 1.05, 0.95
   137, 'BVK_110_1   ',       110, 1,    1,    1, 1, 0.999090909,           0, 1.05, 0.95, 1.05, 0.95
   138, 'BVK_110_2   ',       110, 1,    1,    1, 1, 0.999090909,           0, 1.05, 0.95, 1.05, 0.95
   139, 'GRO_10_2    ',        10, 1,    1,    1, 1,        1.02,           0, 1.05, 0.95, 1.05, 0.95
   140, 'GRO_10_1    ',        10, 1,    1,    1, 1,        1.02,           0, 1.05, 0.95, 1.05, 0.95
   141, 'KER_110_1   ',       110, 1,    1,    1, 1, 0.991818182,           0, 1.05, 0.95, 1.05, 0.95
   142, 'KER_110_WP  ',       110, 1,    1,    1, 1, 0.991818182,           0, 1.05, 0.95, 1.05, 0.95
   143, 'KER_10_KER  ',        10, 1,    1,    1, 1,        0.99,           0, 1.05, 0.95, 1.05, 0.95
   144, 'LEILI_110_KE',       110, 1,    1,    1, 1, 0.998181818,           0, 1.05, 0.95, 1.05, 0.95
   145, 'OUG_110_1   ',       110, 1,    1,    1, 1, 0.998181818,           0, 1.05, 0.95, 1.05, 0.95
   146, 'OUG_110_WP  ',       110, 1,    1,    1, 1, 0.999090909,           0, 1.05, 0.95, 1.05, 0.95
   147, 'OUG_110_2   ',       110, 1,    1,    1, 1, 0.998181818,           0, 1.05, 0.95, 1.05, 0.95
   148, 'OUG_10_2    ',        10, 1,    1,    1, 1,        1.01,           0, 1.05, 0.95, 1.05, 0.95
   149, 'OUG_10_1    ',        10, 1,    1,    1, 1,        1.01,           0, 1.05, 0.95, 1.05, 0.95
   150, 'TRL_110_1   ',       110, 1,    1,    1, 1, 0.999090909,           0, 1.05, 0.95, 1.05, 0.95
   151, 'REM_110_1   ',       110, 1,    1,    1, 1,           1,           0, 1.05, 0.95, 1.05, 0.95
   152, 'REM_110_WP  ',       110, 2,    1,    1, 1,           1,           0, 1.05, 0.95, 1.05, 0.95
   153, 'REM_110_2   ',       110, 1,    1,    1, 1,           1,           0, 1.05, 0.95, 1.05, 0.95
   154, 'REM_10_2    ',        10, 1,    1,    1, 1,        1.01,           0, 1.05, 0.95, 1.05, 0.95
   155, 'REM_10_1    ',        10, 1,    1,    1, 1,        1.01,           0, 1.05, 0.95, 1.05, 0.95
   156, 'TRL_110_WP  ',       110, 1,    1,    1, 1, 0.999090909,           0, 1.05, 0.95, 1.05, 0.95
   157, 'KPG_110_1   ',       110, 1,    1,    1, 1, 0.998181818,           0, 1.05, 0.95, 1.05, 0.95
   158, 'KPG_110_WP  ',       110, 1,    1,    1, 1, 0.997272727,           0, 1.05, 0.95, 1.05, 0.95
   159, 'RAT_110_2   ',       110, 1,    1,    1, 1,           1,           0, 1.05, 0.95, 1.05, 0.95
   160, 'RAT_110_1   ',       110, 1,    1,    1, 1,           1,           0, 1.05, 0.95, 1.05, 0.95
   161, 'RAT_110_WP  ',       110, 2,    1,    1, 1,           1,           0, 1.05, 0.95, 1.05, 0.95
   162, 'RAT_10_RAT  ',        10, 1,    1,    1, 1,           1,           0, 1.05, 0.95, 1.05, 0.95
   163, 'LIM_110_1   ',       110, 1,    1,    1, 1,        0.98,           0, 1.05, 0.95, 1.05, 0.95
   164, 'AA_110_1    ',       110, 1,    1,    1, 1,        0.99,           0, 1.05, 0.95, 1.05, 0.95
   165, 'AA_110_WP   ',       110, 1,    1,    1, 1,        0.99,           0, 1.05, 0.95, 1.05, 0.95
   166, 'AA_10_AA2   ',        10, 2,    1,    1, 1,           1,           0, 1.05, 0.95, 1.05, 0.95
   167, 'AA_10_AA1   ',        10, 2,    1,    1, 1,           1,           0, 1.05, 0.95, 1.05, 0.95
   168, 'AA_110_CAPAC',       110, 1,    1,    1, 1,        0.99,           0, 1.05, 0.95, 1.05, 0.95
   169, 'DRU_110_1   ',       110, 1,    1,    1, 1, 0.987272727,           0, 1.05, 0.95, 1.05, 0.95
   170, 'DRU_110_2   ',       110, 1,    1,    1, 1, 0.987272727,           0, 1.05, 0.95, 1.05, 0.95
   171, 'ENN_110_2   ',       110, 1,    1,    1, 1, 0.998181818,           0, 1.05, 0.95, 1.05, 0.95
   172, 'ENN_110_1   ',       110, 1,    1,    1, 1, 0.998181818,           0, 1.05, 0.95, 1.05, 0.95
   173, 'ENN_110_WP  ',       110, 1,    1,    1, 1, 0.998181818,           0, 1.05, 0.95, 1.05, 0.95
   174, 'AGL_110_2   ',       110, 1,    1,    1, 1, 0.995454545,           0, 1.05, 0.95, 1.05, 0.95
   175, 'AGL_110_1   ',       110, 1,    1,    1, 1, 0.995454545,           0, 1.05, 0.95, 1.05, 0.95
   176, 'SH_110_1    ',       110, 1,    1,    1, 1, 0.981818182,          -0, 1.05, 0.95, 1.05, 0.95
   177, 'SH_110_2    ',       110, 1,    1,    1, 1, 0.981818182,          -0, 1.05, 0.95, 1.05, 0.95
   178, 'LEILI_110_CS',       110, 1,    1,    1, 1, 0.980909091,           0, 1.05, 0.95, 1.05, 0.95
   179, 'CSH_110_1   ',       110, 1,    1,    1, 1, 0.993636364,           0, 1.05, 0.95, 1.05, 0.95
   180, 'CSH_110_2   ',       110, 1,    1,    1, 1, 0.994545455,           0, 1.05, 0.95, 1.05, 0.95
   181, 'CSH_110_CAPA',       110, 1,    1,    1, 1, 0.994545455,           0, 1.05, 0.95, 1.05, 0.95
   182, 'SAL_110_2   ',       110, 1,    1,    1, 1, 0.994545455,           0, 1.05, 0.95, 1.05, 0.95
   183, 'SAL_110_1   ',       110, 1,    1,    1, 1, 0.994545455,           0, 1.05, 0.95, 1.05, 0.95
   184, 'KNY_110_1   ',       110, 1,    1,    1, 1,           1,           0, 1.05, 0.95, 1.05, 0.95
   185, 'KNY_110_2   ',       110, 1,    1,    1, 1,           1,           0, 1.05, 0.95, 1.05, 0.95
   186, 'KNY_10_2    ',        10, 1,    1,    1, 1,        0.98,          -0, 1.05, 0.95, 1.05, 0.95
   187, 'KNY_110_WP  ',       110, 2,    1,    1, 1,           1,           0, 1.05, 0.95, 1.05, 0.95
   188, 'KNY_110_CAPA',       110, 1,    1,    1, 1,           1,           0, 1.05, 0.95, 1.05, 0.95
   189, 'SCR_110_1   ',       110, 1,    1,    1, 1, 0.997272727,          -0, 1.05, 0.95, 1.05, 0.95
   190, 'SCR_110_2   ',       110, 1,    1,    1, 1, 0.997272727,          -0, 1.05, 0.95, 1.05, 0.95
   191, 'SCR_10_2    ',        10, 1,    1,    1, 1,        0.98,          -0, 1.05, 0.95, 1.05, 0.95
   192, 'SCR_110_WP  ',       110, 1,    1,    1, 1, 0.997272727,          -0, 1.05, 0.95, 1.05, 0.95
   193, 'SCR_10_1    ',        10, 1,    1,    1, 1,        0.98,          -0, 1.05, 0.95, 1.05, 0.95
   194, 'UGL_110_1   ',       110, 1,    1,    1, 1,           1,           0, 1.05, 0.95, 1.05, 0.95
   195, 'UGL_110_2   ',       110, 1,    1,    1, 1,           1,           0, 1.05, 0.95, 1.05, 0.95
   196, 'UGL_10_2    ',        10, 1,    1,    1, 1,        0.98,          -0, 1.05, 0.95, 1.05, 0.95
   197, 'UGL_110_WP  ',       110, 2,    1,    1, 1,           1,           0, 1.05, 0.95, 1.05, 0.95
   198, 'UGL_10_1    ',        10, 1,    1,    1, 1,        0.98,          -0, 1.05, 0.95, 1.05, 0.95
   199, 'KNY_10_1    ',        10, 1,    1,    1, 1,        0.98,          -0, 1.05, 0.95, 1.05, 0.95
   200, 'GAL_110_2   ',       110, 1,    1,    1, 1, 0.991818182,           0, 1.05, 0.95, 1.05, 0.95
...
0 / END OF BUS DATA, BEGIN LOAD DATA
     4,  1, 1,    1,    1,     0.333,     0.044, 0, 0, 0, 0, 1, 1, 0
    61,  1, 1,    1,    1,     3.249,     0.758, 0, 0, 0, 0, 1, 1, 0
    62,  1, 1,    1,    1,     3.249,     0.758, 0, 0, 0, 0, 1, 1, 0
    80,  1, 1,    1,    1,     2.745,     0.808, 0, 0, 0, 0, 1, 1, 0
    81,  1, 1,    1,    1,     2.041,      1.01, 0, 0, 0, 0, 1, 1, 0
    82,  1, 1,    1,    1,     2.041,      1.01, 0, 0, 0, 0, 1, 1, 0
    83,  1, 1,    1,    1,     2.745,     0.808, 0, 0, 0, 0, 1, 1, 0
    89,  1, 1,    1,    1,     7.308,     1.617, 0, 0, 0, 0, 1, 1, 0
    90,  1, 1,    1,    1,     7.308,     1.617, 0, 0, 0, 0, 1, 1, 0
    98,  1, 1,    1,    1,     6.084,      1.01, 0, 0, 0, 0, 1, 1, 0
    99,  1, 1,    1,    1,     6.084,      1.01, 0, 0, 0, 0, 1, 1, 0
   101,  1, 1,    1,    1,     3.249,     0.758, 0, 0, 0, 0, 1, 1, 0
   102,  1, 1,    1,    1,     3.249,     0.758, 0, 0, 0, 0, 1, 1, 0
   106,  1, 1,    1,    1,     3.249,     0.758, 0, 0, 0, 0, 1, 1, 0
   107,  1, 1,    1,    1,     3.249,     0.758, 0, 0, 0, 0, 1, 1, 0
   112,  1, 1,    1,    1,     2.027,     0.303, 0, 0, 0, 0, 1, 1, 0
   113,  1, 1,    1,    1,     2.027,     0.303, 0, 0, 0, 0, 1, 1, 0
   115,  1, 1,    1,    1,     6.104,     2.021, 0, 0, 0, 0, 1, 1, 0
   116,  1, 1,    1,    1,     6.104,     2.021, 0, 0, 0, 0, 1, 1, 0
   117,  1, 1,    1,    1,    12.687,     2.728, 0, 0, 0, 0, 1, 1, 0
   118,  1, 1,    1,    1,    12.687,     2.728, 0, 0, 0, 0, 1, 1, 0
   125,  1, 1,    1,    1,     2.027,     0.303, 0, 0, 0, 0, 1, 1, 0
   126,  1, 1,    1,    1,     2.027,     0.303, 0, 0, 0, 0, 1, 1, 0
   128,  1, 1,    1,    1,     2.027,     0.303, 0, 0, 0, 0, 1, 1, 0
   130,  1, 1,    1,    1,     2.027,     0.303, 0, 0, 0, 0, 1, 1, 0
   139,  1, 1,    1,    1,     2.027,     0.303, 0, 0, 0, 0, 1, 1, 0
   140,  1, 1,    1,    1,     2.027,     0.303, 0, 0, 0, 0, 1, 1, 0
   148,  1, 1,    1,    1,    12.964,     1.415, 0, 0, 0, 0, 1, 1, 0
   149,  1, 1,    1,    1,    12.964,     1.415, 0, 0, 0, 0, 1, 1, 0
   154,  1, 1,    1,    1,    14.089,     2.122, 0, 0, 0, 0, 1, 1, 0
   155,  1, 1,    1,    1,    14.089,     2.122, 0, 0, 0, 0, 1, 1, 0
   186,  1, 1,    1,    1,    10.134,     1.415, 0, 0, 0, 0, 1, 1, 0
   191,  1, 1,    1,    1,    14.233,     4.244, 0, 0, 0, 0, 1, 1, 0
   193,  1, 1,    1,    1,    14.233,     4.244, 0, 0, 0, 0, 1, 1, 0
   196,  1, 1,    1,    1,     6.081,     0.859, 0, 0, 0, 0, 1, 1, 0
   198,  1, 1,    1,    1,     6.081,     0.859, 0, 0, 0, 0, 1, 1, 0
   199,  1, 1,    1,    1,    10.134,     1.415, 0, 0, 0, 0, 1, 1, 0
   202,  1, 1,    1,    1,    34.636,     3.738, 0, 0, 0, 0, 1, 1, 0
   203,  1, 1,    1,    1,    34.636,     3.738, 0, 0, 0, 0, 1, 1, 0
   204,  1, 1,    1,    1,    10.134,     1.415, 0, 0, 0, 0, 1, 1, 0
   206,  1, 1,    1,    1,    10.134,     1.415, 0, 0, 0, 0, 1, 1, 0
   215,  1, 1,    1,    1,     9.228,     1.617, 0, 0, 0, 0, 1, 1, 0
   216,  1, 1,    1,    1,     9.228,     1.617, 0, 0, 0, 0, 1, 1, 0
   219,  1, 1,    1,    1,     2.437,     0.606, 0, 0, 0, 0, 1, 1, 0
   228,  1, 1,    1,    1,     2.026,     0.222, 0, 0, 0, 0, 1, 1, 0
   229,  1, 1,    1,    1,     2.026,     0.222, 0, 0, 0, 0, 1, 1, 0
   234,  1, 1,    1,    1,     4.059,     0.818, 0, 0, 0, 0, 1, 1, 0
   255,  1, 1,    1,    1,    16.541,     3.435, 0, 0, 0, 0, 1, 1, 0
   257,  1, 1,    1,    1,    16.541,     3.435, 0, 0, 0, 0, 1, 1, 0
   258,  1, 1,    1,    1,     32.55,    10.609, 0, 0, 0, 0, 1, 1, 0
   259,  1, 1,    1,    1,     32.55,    10.609, 0, 0, 0, 0, 1, 1, 0
   277,  1, 1,    1,    1,    12.798,     3.233, 0, 0, 0, 0, 1, 1, 0
   279,  1, 1,    1,    1,    12.798,     3.233, 0, 0, 0, 0, 1, 1, 0
   287,  1, 1,    1,    1,     1.168,     0.303, 0, 0, 0, 0, 1, 1, 0
   289,  1, 1,    1,    1,     1.168,     0.303, 0, 0, 0, 0, 1, 1, 0
   295,  1, 1,    1,    1,    15.623,     3.031, 0, 0, 0, 0, 1, 1, 0
   301,  1, 1,    1,    1,    15.623,     3.031, 0, 0, 0, 0, 1, 1, 0
   302,  1, 1,    1,    1,     3.042,     0.505, 0, 0, 0, 0, 1, 1, 0
   306,  1, 1,    1,    1,     2.027,     0.303, 0, 0, 0, 0, 1, 1, 0
   308,  1, 1,    1,    1,     2.027,     0.303, 0, 0, 0, 0, 1, 1, 0
   309,  1, 1,    1,    1,     3.042,     0.505, 0, 0, 0, 0, 1, 1, 0
   310,  1, 1,    1,    1,    10.132,     1.313, 0, 0, 0, 0, 1, 1, 0
   311,  1, 1,    1,    1,    10.132,     1.313, 0, 0, 0, 0, 1, 1, 0
   312,  1, 1,    1,    1,     3.044,     0.606, 0, 0, 0, 0, 1, 1, 0
   335,  1, 1,    1,    1,    101.36,    15.155, 0, 0, 0, 0, 1, 1, 0
   342,  1, 1,    1,    1,    17.242,     3.132, 0, 0, 0, 0, 1, 1, 0
   349,  1, 1,    1,    1,    13.178,     2.021, 0, 0, 0, 0, 1, 1, 0
   351,  1, 1,    1,    1,    13.178,     2.021, 0, 0, 0, 0, 1, 1, 0
   352,  1, 1,    1,    1,    17.242,     3.132, 0, 0, 0, 0, 1, 1, 0
   355,  1, 1,    1,    1,    17.242,     3.132, 0, 0, 0, 0, 1, 1, 0
   358,  1, 1,    1,    1,    17.242,     3.132, 0, 0, 0, 0, 1, 1, 0
   361,  1, 1,    1,    1,    17.242,     3.132, 0, 0, 0, 0, 1, 1, 0
   364,  1, 1,    1,    1,    17.242,     3.132, 0, 0, 0, 0, 1, 1, 0
   365,  1, 1,    1,    1,    17.242,     3.132, 0, 0, 0, 0, 1, 1, 0
   368,  1, 1,    1,    1,    17.242,     3.132, 0, 0, 0, 0, 1, 1, 0
   370,  1, 1,    1,    1,    17.242,     3.132, 0, 0, 0, 0, 1, 1, 0
   373,  1, 1,    1,    1,    17.242,     3.132, 0, 0, 0, 0, 1, 1, 0
   377,  1, 1,    1,    1,    17.242,     3.132, 0, 0, 0, 0, 1, 1, 0
   381,  1, 1,    1,    1,    17.242,     3.132, 0, 0, 0, 0, 1, 1, 0
   383,  1, 1,    1,    1,    17.242,     3.132, 0, 0, 0, 0, 1, 1, 0
   384,  1, 1,    1,    1,    17.242,     3.132, 0, 0, 0, 0, 1, 1, 0
   385,  1, 1,    1,    1,    17.242,     3.132, 0, 0, 0, 0, 1, 1, 0
   387,  1, 1,    1,    1,    17.242,     3.132, 0, 0, 0, 0, 1, 1, 0
   388,  1, 1,    1,    1,    17.242,     3.132, 0, 0, 0, 0, 1, 1, 0
   389,  1, 1,    1,    1,    17.242,     3.132, 0, 0, 0, 0, 1, 1, 0
   391,  1, 1,    1,    1,   202.719,    30.311, 0, 0, 0, 0, 1, 1, 0
   399,  1, 1,    1,    1,     3.249,     0.758, 0, 0, 0, 0, 1, 1, 0
   403,  1, 1,    1,    1,    22.301,     3.435, 0, 0, 0, 0, 1, 1, 0
   410,  1, 1,    1,    1,     5.085,     1.617, 0, 0, 0, 0, 1, 1, 0
   420,  1, 1,    1,    1,     5.069,     0.808, 0, 0, 0, 0, 1, 1, 0
   422,  1, 1,    1,    1,     5.069,     0.808, 0, 0, 0, 0, 1, 1, 0
   423,  1, 1,    1,    1,    22.301,     3.435, 0, 0, 0, 0, 1, 1, 0
   430,  1, 1,    1,    1,    51.205,    21.218, 0, 0, 0, 0, 1, 1, 0
   432,  1, 1,    1,    1,    51.205,    21.218, 0, 0, 0, 0, 1, 1, 0
   438,  1, 1,    1,    1,     5.063,     0.505, 0, 0, 0, 0, 1, 1, 0
   439,  1, 1,    1,    1,     5.063,     0.505, 0, 0, 0, 0, 1, 1, 0
   442,  1, 1,    1,    1,     5.178,     1.212, 0, 0, 0, 0, 1, 1, 0
   448,  1, 1,    1,    1,    24.878,     5.961, 0, 0, 0, 0, 1, 1, 0
   454,  1, 1,    1,    1,     2.636,     0.404, 0, 0, 0, 0, 1, 1, 0
   460,  1, 1,    1,    1,    13.137,         0, 0, 0, 0, 0, 1, 1, 0
   461,  1, 1,    1,    1,    13.137,         0, 0, 0, 0, 0, 1, 1, 0
   470,  1, 1,    1,    1,    16.333,     3.132, 0, 0, 0, 0, 1, 1, 0
   472,  1, 1,    1,    1,    16.333,     3.132, 0, 0, 0, 0, 1, 1, 0
   473,  1, 1,    1,    1,     3.249,     0.758, 0, 0, 0, 0, 1, 1, 0
   474,  1, 1,    1,    1,     3.249,     0.758, 0, 0, 0, 0, 1, 1, 0
   481,  1, 1,    1,    1,     8.808,     0.808, 0, 0, 0, 0, 1, 1, 0
   483,  1, 1,    1,    1,     8.808,     0.808, 0, 0, 0, 0, 1, 1, 0
   484,  1, 1,    1,    1,    27.334,     2.425, 0, 0, 0, 0, 1, 1, 0
   498,  1, 1,    1,    1,     2.027,     0.303, 0, 0, 0, 0, 1, 1, 0
   499,  1, 1,    1,    1,     2.027,     0.303, 0, 0, 0, 0, 1, 1, 0
   502,  1, 1,    1,    1,    10.639,     1.415, 0, 0, 0, 0, 1, 1, 0
   503,  1, 1,    1,    1,    10.639,     1.415, 0, 0, 0, 0, 1, 1, 0
   504,  1, 1,    1,    1,    29.397,     4.547, 0, 0, 0, 0, 1, 1, 0
   519,  1, 1,    1,    1,     6.081,     0.859, 0, 0, 0, 0, 1, 1, 0
   520,  1, 1,    1,    1,     6.081,     0.859, 0, 0, 0, 0, 1, 1, 0
   527,  1, 1,    1,    1,     2.027,     0.303, 0, 0, 0, 0, 1, 1, 0
   528,  1, 1,    1,    1,     2.027,     0.303, 0, 0, 0, 0, 1, 1, 0
   532,  1, 1,    1,    1,     2.027,     0.303, 0, 0, 0, 0, 1, 1, 0
   533,  1, 1,    1,    1,     2.027,     0.303, 0, 0, 0, 0, 1, 1, 0
   534,  1, 1,    1,    1,     3.249,     0.758, 0, 0, 0, 0, 1, 1, 0
   550,  1, 1,    1,    1,    27.402,      5.86, 0, 0, 0, 0, 1, 1, 0
   552,  1, 1,    1,    1,    27.402,      5.86, 0, 0, 0, 0, 1, 1, 0
   553,  1, 1,    1,    1,    27.402,      5.86, 0, 0, 0, 0, 1, 1, 0
   554,  1, 1,    1,    1,    27.402,      5.86, 0, 0, 0, 0, 1, 1, 0
   562,  1, 1,    1,    1,     5.281,     1.313, 0, 0, 0, 0, 1, 1, 0
   566,  1, 1,    1,    1,    22.301,     3.435, 0, 0, 0, 0, 1, 1, 0
   567,  1, 1,    1,    1,    22.301,     3.435, 0, 0, 0, 0, 1, 1, 0
   569,  1, 1,    1,    1,     5.281,     1.313, 0, 0, 0, 0, 1, 1, 0
   570,  1, 1,    1,    1,    27.402,      5.86, 0, 0, 0, 0, 1, 1, 0
   571,  1, 1,    1,    1,    27.402,      5.86, 0, 0, 0, 0, 1, 1, 0
   573,  1, 1,    1,    1,    27.402,      5.86, 0, 0, 0, 0, 1, 1, 0
   575,  1, 1,    1,    1,    27.402,      5.86, 0, 0, 0, 0, 1, 1, 0
   577,  1, 1,    1,    1,    27.402,      5.86, 0, 0, 0, 0, 1, 1, 0
   578,  1, 1,    1,    1,    27.402,      5.86, 0, 0, 0, 0, 1, 1, 0
   585,  1, 1,    1,    1,      1.22,     0.354, 0, 0, 0, 0, 1, 1, 0
   586,  1, 1,    1,    1,      1.22,     0.354, 0, 0, 0, 0, 1, 1, 0
   589,  1, 1,    1,    1,    15.199,     2.021, 0, 0, 0, 0, 1, 1, 0
   591,  1, 1,    1,    1,    26.489,     5.658, 0, 0, 0, 0, 1, 1, 0
   592,  1, 1,    1,    1,    26.489,     5.658, 0, 0, 0, 0, 1, 1, 0
   594,  1, 1,    1,    1,    18.206,     0.808, 0, 0, 0, 0, 1, 1, 0
   595,  1, 1,    1,    1,    18.206,     0.808, 0, 0, 0, 0, 1, 1, 0
   597,  1, 1,    1,    1,     7.084,     0.505, 0, 0, 0, 0, 1, 1, 0
   598,  1, 1,    1,    1,     7.084,     0.505, 0, 0, 0, 0, 1, 1, 0
   601,  1, 1,    1,    1,    27.402,      5.86, 0, 0, 0, 0, 1, 1, 0
   605,  1, 1,    1,    1,    27.402,      5.86, 0, 0, 0, 0, 1, 1, 0
   607,  1, 1,    1,    1,    27.402,      5.86, 0, 0, 0, 0, 1, 1, 0
   608,  1, 1,    1,    1,    27.402,      5.86, 0, 0, 0, 0, 1, 1, 0
   610,  1, 1,    1,    1,    12.816,     4.142, 0, 0, 0, 0, 1, 1, 0
   617,  1, 1,    1,    1,     7.145,     3.536, 0, 0, 0, 0, 1, 1, 0
   618,  1, 1,    1,    1,     7.145,     3.536, 0, 0, 0, 0, 1, 1, 0
   619,  1, 1,    1,    1,    15.526,     3.233, 0, 0, 0, 0, 1, 1, 0
   633,  1, 1,    1,    1,     10.87,     2.829, 0, 0, 0, 0, 1, 1, 0
   634,  1, 1,    1,    1,     10.87,     2.829, 0, 0, 0, 0, 1, 1, 0
   638,  1, 1,    1,    1,     2.533,     0.333, 0, 0, 0, 0, 1, 1, 0
   639,  1, 1,    1,    1,     2.533,     0.333, 0, 0, 0, 0, 1, 1, 0
   642,  1, 1,    1,    1,     5.582,     1.212, 0, 0, 0, 0, 1, 1, 0
   643,  1, 1,    1,    1,     5.582,     1.212, 0, 0, 0, 0, 1, 1, 0
   645,  1, 1,    1,    1,    38.034,      6.87, 0, 0, 0, 0, 1, 1, 0
   646,  1, 1,    1,    1,     3.249,     0.758, 0, 0, 0, 0, 1, 1, 0
   647,  1, 1,    1,    1,     3.249,     0.758, 0, 0, 0, 0, 1, 1, 0
   649,  1, 1,    1,    1,     3.249,     0.758, 0, 0, 0, 0, 1, 1, 0
   650,  1, 1,    1,    1,     3.249,     0.758, 0, 0, 0, 0, 1, 1, 0
   651,  1, 1,    1,    1,    10.655,     2.223, 0, 0, 0, 0, 1, 1, 0
   652,  1, 1,    1,    1,    10.655,     2.223, 0, 0, 0, 0, 1, 1, 0
   664,  1, 1,    1,    1,    15.239,     4.041, 0, 0, 0, 0, 1, 1, 0
   666,  1, 1,    1,    1,    15.239,     4.041, 0, 0, 0, 0, 1, 1, 0
   670,  1, 1,    1,    1,     5.078,     1.263, 0, 0, 0, 0, 1, 1, 0
   671,  1, 1,    1,    1,     5.078,     1.263, 0, 0, 0, 0, 1, 1, 0
   672,  1, 1,    1,    1,      9.14,     2.223, 0, 0, 0, 0, 1, 1, 0
   673,  1, 1,    1,    1,      9.14,     2.223, 0, 0, 0, 0, 1, 1, 0
   675,  1, 1,    1,    1,     3.249,     0.758, 0, 0, 0, 0, 1, 1, 0
   676,  1, 1,    1,    1,     3.249,     0.758, 0, 0, 0, 0, 1, 1, 0
   681,  1, 1,    1,    1,    16.205,     1.819, 0, 0, 0, 0, 1, 1, 0
   682,  1, 1,    1,    1,    16.205,     1.819, 0, 0, 0, 0, 1, 1, 0
   683,  1, 1,    1,    1,     13.39,     2.526, 0, 0, 0, 0, 1, 1, 0
   684,  1, 1,    1,    1,     13.39,     2.526, 0, 0, 0, 0, 1, 1, 0
   685,  1, 1,    1,    1,    15.526,     3.233, 0, 0, 0, 0, 1, 1, 0
   687,  1, 1,    1,    1,     8.733,     2.122, 0, 0, 0, 0, 1, 1, 0
   688,  1, 1,    1,    1,     8.733,     2.122, 0, 0, 0, 0, 1, 1, 0
   696,  1, 1,    1,    1,    28.518,     6.062, 0, 0, 0, 0, 1, 1, 0
   697,  1, 1,    1,    1,     3.062,     1.516, 0, 0, 0, 0, 1, 1, 0
   698,  1, 1,    1,    1,     3.062,     1.516, 0, 0, 0, 0, 1, 1, 0
   700,  1, 1,    1,    1,    20.252,     2.021, 0, 0, 0, 0, 1, 1, 0
   701,  1, 1,    1,    1,    20.252,     2.021, 0, 0, 0, 0, 1, 1, 0
   707,  1, 1,    1,    1,     3.249,     0.758, 0, 0, 0, 0, 1, 1, 0
   708,  1, 1,    1,    1,     3.249,     0.758, 0, 0, 0, 0, 1, 1, 0
   709,  1, 1,    1,    1,     18.75,     2.728, 0, 0, 0, 0, 1, 1, 0
   710,  1, 1,    1,    1,     18.75,     2.728, 0, 0, 0, 0, 1, 1, 0
   711,  1, 1,    1,    1,    28.518,     6.062, 0, 0, 0, 0, 1, 1, 0
   713,  1, 1,    1,    1,     3.249,     0.758, 0, 0, 0, 0, 1, 1, 0
   714,  1, 1,    1,    1,    15.199,     2.021, 0, 0, 0, 0, 1, 1, 0
   717,  1, 1,    1,    1,    29.155,     7.578, 0, 0, 0, 0, 1, 1, 0
   718,  1, 1,    1,    1,    29.155,     7.578, 0, 0, 0, 0, 1, 1, 0
   719,  1, 1,    1,    1,    32.702,     8.083, 0, 0, 0, 0, 1, 1, 0
   720,  1, 1,    1,    1,    32.702,     8.083, 0, 0, 0, 0, 1, 1, 0
   721,  1, 1,    1,    1,     3.249,     0.758, 0, 0, 0, 0, 1, 1, 0
   722,  1, 1,    1,    1,     3.249,     0.758, 0, 0, 0, 0, 1, 1, 0
   723,  1, 1,    1,    1,    29.397,     4.547, 0, 0, 0, 0, 1, 1, 0
   724,  1, 1,    1,    1,    10.643,     1.617, 0, 0, 0, 0, 1, 1, 0
   725,  1, 1,    1,    1,    10.643,     1.617, 0, 0, 0, 0, 1, 1, 0
...
0 / END OF LOAD DATA, BEGIN FIXED SHUNT DATA
0 / END OF FIXED SHUNT DATA, BEGIN GENERATOR DATA
    36,  1,     85.54,    -5.984,        97,       -97,        1, 0,     100, 0, 1, 0, 0, 1, 1, 100,        97,         0, 1, 1, 0, 1, 0, 1, 0, 1, 0, 1
    35,  1,     85.54,    -5.984,        97,       -97,        1, 0,     100, 0, 1, 0, 0, 1, 1, 100,        97,         0, 1, 1, 0, 1, 0, 1, 0, 1, 0, 1
   970,  1,        64,     6.954,        70,       -70,        1, 0,     100, 0, 1, 0, 0, 1, 1, 100,        70,         0, 1, 1, 0, 1, 0, 1, 0, 1, 0, 1
   975,  1,        64,     6.904,        70,       -70,        1, 0,     100, 0, 1, 0, 0, 1, 1, 100,        70,         0, 1, 1, 0, 1, 0, 1, 0, 1, 0, 1
   464,  1,    115.72,     4.826,       125,      -125,        1, 0,     100, 0, 1, 0, 0, 1, 1, 100,       125,         0, 1, 1, 0, 1, 0, 1, 0, 1, 0, 1
   738,  1,     51.84,     4.712,        56,       -56,        1, 0,     100, 0, 1, 0, 0, 1, 1, 100,        56,         0, 1, 1, 0, 1, 0, 1, 0, 1, 0, 1
    32,  1,    387.49,   -27.484,       481,      -481,        1, 0,     100, 0, 1, 0, 0, 1, 1, 100,       481,         0, 1, 1, 0, 1, 0, 1, 0, 1, 0, 1
    26,  1,    421.58,    51.394,       465,      -465,        1, 0,     100, 0, 1, 0, 0, 1, 1, 100,       465,         0, 1, 1, 0, 1, 0, 1, 0, 1, 0, 1
   822,  1,    321.72,     86.51,       380,      -380,        1, 0,     100, 0, 1, 0, 0, 1, 1, 100,       380,         0, 1, 1, 0, 1, 0, 1, 0, 1, 0, 1
   783,  1,    375.44,   112.678,       445,      -445,        1, 0,     100, 0, 1, 0, 0, 1, 1, 100,       445,         0, 1, 1, 0, 1, 0, 1, 0, 1, 0, 1
   779,  1,    325.61,   102.474,       448,      -448,     1.02, 0,     100, 0, 1, 0, 0, 1, 1, 100,       448,         0, 1, 1, 0, 1, 0, 1, 0, 1, 0, 1
  1099,  1,    426.58,    22.174,       465,      -465,     1.01, 0,     100, 0, 1, 0, 0, 1, 1, 100,       465,         0, 1, 1, 0, 1, 0, 1, 0, 1, 0, 1
  1119,  1,    287.96,   -30.532,       311,      -311,        1, 0,     100, 0, 1, 0, 0, 1, 1, 100,       311,         0, 1, 1, 0, 1, 0, 1, 0, 1, 0, 1
  1116,  1,    287.96,   -30.532,       311,      -311,        1, 0,     100, 0, 1, 0, 0, 1, 1, 100,       311,         0, 1, 1, 0, 1, 0, 1, 0, 1, 0, 1
  1128,  1,    287.96,   -30.602,       311,      -311,        1, 0,     100, 0, 1, 0, 0, 1, 1, 100,       311,         0, 1, 1, 0, 1, 0, 1, 0, 1, 0, 1
  1061,  1,     55.26,     22.62,        92,       -92,        1, 0,     100, 0, 1, 0, 0, 1, 1, 100,        92,         0, 1, 1, 0, 1, 0, 1, 0, 1, 0, 1
   774,  1,     61.12,     4.816,        66,       -66,        1, 0,     100, 0, 1, 0, 0, 1, 1, 100,        66,         0, 1, 1, 0, 1, 0, 1, 0, 1, 0, 1
   781,  1,     165.2,   120.418,       184,      -184,        1, 0,     100, 0, 1, 0, 0, 1, 1, 100,       184,         0, 1, 1, 0, 1, 0, 1, 0, 1, 0, 1
  1036,  1,    240.72,   -21.644,       260,      -260,     1.02, 0,     100, 0, 1, 0, 0, 1, 1, 100,       260,         0, 1, 1, 0, 1, 0, 1, 0, 1, 0, 1
  1126,  1,       400,    -29.74,       432,      -432,        1, 0,     100, 0, 1, 0, 0, 1, 1, 100,       432,         0, 1, 1, 0, 1, 0, 1, 0, 1, 0, 1
   167,  1,     21.31,     3.344,        22,       -22,        1, 0,     100, 0, 1, 0, 0, 1, 1, 100,        22,         0, 1, 1, 0, 1, 0, 1, 0, 1, 0, 1
   166,  1,     21.09,     3.324,        22,       -22,        1, 0,     100, 0, 1, 0, 0, 1, 1, 100,        22,         0, 1, 1, 0, 1, 0, 1, 0, 1, 0, 1
   954,  1,     20.79,     3.242,        21,       -21,        1, 0,     100, 0, 1, 0, 0, 1, 1, 100,        21,         0, 1, 1, 0, 1, 0, 1, 0, 1, 0, 1
   953,  1,     20.79,     3.242,        21,       -21,        1, 0,     100, 0, 1, 0, 0, 1, 1, 100,        21,         0, 1, 1, 0, 1, 0, 1, 0, 1, 0, 1
   105,  1,     14.85,      1.35,        15,       -15,        1, 0,     100, 0, 1, 0, 0, 1, 1, 100,        15,         0, 1, 1, 0, 1, 0, 1, 0, 1, 0, 1
   300,  1,      1.14,    -4.134,        23,       -23,        1, 0,     100, 0, 1, 0, 0, 1, 1, 100,        23,         0, 1, 1, 0, 1, 0, 1, 0, 1, 0, 1
    95,  1,      3.24,     0.728,         4,        -4,        1, 0,     100, 0, 1, 0, 0, 1, 1, 100,         4,         0, 1, 1, 0, 1, 0, 1, 0, 1, 0, 1
    94,  1,      7.48,     1.536,         8,        -8,        1, 0,     100, 0, 1, 0, 0, 1, 1, 100,         8,         0, 1, 1, 0, 1, 0, 1, 0, 1, 0, 1
   495,  1,     10.89,      1.36,        15,       -15,        1, 0,     100, 0, 1, 0, 0, 1, 1, 100,        15,         0, 1, 1, 0, 1, 0, 1, 0, 1, 0, 1
   497,  1,     10.89,      1.36,        15,       -15,        1, 0,     100, 0, 1, 0, 0, 1, 1, 100,        15,         0, 1, 1, 0, 1, 0, 1, 0, 1, 0, 1
   494,  1,      3.24,     0.388,         4,        -4,        1, 0,     100, 0, 1, 0, 0, 1, 1, 100,         4,         0, 1, 1, 0, 1, 0, 1, 0, 1, 0, 1
   908,  1,     -0.02,     0.074,         2,        -2,        1, 0,     100, 0, 1, 0, 0, 1, 1, 100,         2,         0, 1, 1, 0, 1, 0, 1, 0, 1, 0, 1
   828,  1,    -68.73,    11.346,        74,       -74,        1, 0,     100, 0, 1, 0, 0, 1, 1, 100,        74,         0, 1, 1, 0, 1, 0, 1, 0, 1, 0, 1
   776,  1,    150.25,      77.4,       151,      -151,     1.02, 0,     100, 0, 1, 0, 0, 1, 1, 100,       151,         0, 1, 1, 0, 1, 0, 1, 0, 1, 0, 1
   777,  1,    150.25,      77.4,       151,      -151,     1.02, 0,     100, 0, 1, 0, 0, 1, 1, 100,       151,         0, 1, 1, 0, 1, 0, 1, 0, 1, 0, 1
     1,  1,    139.17,     34.15,      1500,     -1500,        1, 0,     100, 0, 1, 0, 0, 1, 1, 100,      1500,         0, 1, 1, 0, 1, 0, 1, 0, 1, 0, 1
     1,  1,     64.64,     18.75,      5000,     -5000,        1, 0,     100, 0, 1, 0, 0, 1, 1, 100,      5000,         0, 1, 1, 0, 1, 0, 1, 0, 1, 0, 1
  1169,  1,      4.57,      3.42,        50,       -50,        1, 0,     100, 0, 1, 0, 0, 1, 1, 100,        50,         0, 1, 1, 0, 1, 0, 1, 0, 1, 0, 1
   303,  1,      6.39,      5.46,        70,       -70,        1, 0,     100, 0, 1, 0, 0, 1, 1, 100,        70,         0, 1, 1, 0, 1, 0, 1, 0, 1, 0, 1
   515,  1,      0.91,         8,        10,       -10, 0.9936364, 0,     100, 0, 1, 0, 0, 1, 1, 100,        10,         0, 1, 1, 0, 1, 0, 1, 0, 1, 0, 1
   266,  1,      0.82,         7,         9,        -9, 0.9863636, 0,     100, 0, 1, 0, 0, 1, 1, 100,         9,         0, 1, 1, 0, 1, 0, 1, 0, 1, 0, 1
   860,  1,      0.09,       0.5,         1,        -1, 0.9909091, 0,     100, 0, 1, 0, 0, 1, 1, 100,         1,         0, 1, 1, 0, 1, 0, 1, 0, 1, 0, 1
   846,  1,      0.27,        -2,         3,        -3, 0.9972727, 0,     100, 0, 1, 0, 0, 1, 1, 100,         3,         0, 1, 1, 0, 1, 0, 1, 0, 1, 0, 1
  1185,  1,      5.02,      0.11,        55,       -55,        1, 0,     100, 0, 1, 0, 0, 1, 1, 100,        55,         0, 1, 1, 0, 1, 0, 1, 0, 1, 0, 1
   834,  1,      4.57,        40,        50,       -50, 0.9990909, 0,     100, 0, 1, 0, 0, 1, 1, 100,        50,         0, 1, 1, 0, 1, 0, 1, 0, 1, 0, 1
   222,  1,      0.64,         5,         7,        -7,        1, 0,     100, 0, 1, 0, 0, 1, 1, 100,         7,         0, 1, 1, 0, 1, 0, 1, 0, 1, 0, 1
  1176,  1,      4.11,      1.33,        45,       -45,        1, 0,     100, 0, 1, 0, 0, 1, 1, 100,        45,         0, 1, 1, 0, 1, 0, 1, 0, 1, 0, 1
   273,  1,      0.82,         7,         9,        -9, 0.9963636, 0,     100, 0, 1, 0, 0, 1, 1, 100,         9,         0, 1, 1, 0, 1, 0, 1, 0, 1, 0, 1
   239,  1,      1.46,        12,        16,       -16, 0.9963636, 0,     100, 0, 1, 0, 0, 1, 1, 100,        16,         0, 1, 1, 0, 1, 0, 1, 0, 1, 0, 1
  1193,  1,      6.39,     -0.87,        70,       -70,        1, 0,     100, 0, 1, 0, 0, 1, 1, 100,        70,         0, 1, 1, 0, 1, 0, 1, 0, 1, 0, 1
  1189,  1,      4.57,      2.77,        50,       -50,        1, 0,     100, 0, 1, 0, 0, 1, 1, 100,        50,         0, 1, 1, 0, 1, 0, 1, 0, 1, 0, 1
   363,  1,      0.09,       0.5,         1,        -1, 0.9836364, 0,     100, 0, 1, 0, 0, 1, 1, 100,         1,         0, 1, 1, 0, 1, 0, 1, 0, 1, 0, 1
   582,  1,      8.22,     42.41,        90,       -90,        1, 0,     100, 0, 1, 0, 0, 1, 1, 100,        90,         0, 1, 1, 0, 1, 0, 1, 0, 1, 0, 1
   449,  1,      27.4,     54.57,       300,      -300,        1, 0,     100, 0, 1, 0, 0, 1, 1, 100,       300,         0, 1, 1, 0, 1, 0, 1, 0, 1, 0, 1
   482,  1,       2.1,        16,        23,       -23, 0.9881818, 0,     100, 0, 1, 0, 0, 1, 1, 100,        23,         0, 1, 1, 0, 1, 0, 1, 0, 1, 0, 1
   246,  1,      0.46,         4,         5,        -5, 0.9763636, 0,     100, 0, 1, 0, 0, 1, 1, 100,         5,         0, 1, 1, 0, 1, 0, 1, 0, 1, 0, 1
   165,  1,      0.82,         7,         9,        -9,     0.99, 0,     100, 0, 1, 0, 0, 1, 1, 100,         9,         0, 1, 1, 0, 1, 0, 1, 0, 1, 0, 1
   628,  1,     15.53,     34.17,       170,      -170,        1, 0,     100, 0, 1, 0, 0, 1, 1, 100,       170,         0, 1, 1, 0, 1, 0, 1, 0, 1, 0, 1
    55,  1,      4.47,     37.59,        49,       -49,        1, 0,     100, 0, 1, 0, 0, 1, 1, 100,        49,         0, 1, 1, 0, 1, 0, 1, 0, 1, 0, 1
    64,  1,      5.02,      5.99,        55,       -55,        1, 0,     100, 0, 1, 0, 0, 1, 1, 100,        55,         0, 1, 1, 0, 1, 0, 1, 0, 1, 0, 1
   665,  1,      3.47,     18.36,        38,       -38,        1, 0,     100, 0, 1, 0, 0, 1, 1, 100,        38,         0, 1, 1, 0, 1, 0, 1, 0, 1, 0, 1
   668,  1,      3.74,      5.44,        41,       -41,        1, 0,     100, 0, 1, 0, 0, 1, 1, 100,        41,         0, 1, 1, 0, 1, 0, 1, 0, 1, 0, 1
   631,  1,      1.37,        12,        15,       -15, 0.9809091, 0,     100, 0, 1, 0, 0, 1, 1, 100,        15,         0, 1, 1, 0, 1, 0, 1, 0, 1, 0, 1
   161,  1,      2.83,      15.6,        31,       -31,        1, 0,     100, 0, 1, 0, 0, 1, 1, 100,        31,         0, 1, 1, 0, 1, 0, 1, 0, 1, 0, 1
   152,  1,      2.83,     19.35,        31,       -31,        1, 0,     100, 0, 1, 0, 0, 1, 1, 100,        31,         0, 1, 1, 0, 1, 0, 1, 0, 1, 0, 1
   660,  1,      4.02,     -2.16,        44,       -44,        1, 0,     100, 0, 1, 0, 0, 1, 1, 100,        44,         0, 1, 1, 0, 1, 0, 1, 0, 1, 0, 1
   625,  1,      0.18,         1,         2,        -2, 0.9909091, 0,     100, 0, 1, 0, 0, 1, 1, 100,         2,         0, 1, 1, 0, 1, 0, 1, 0, 1, 0, 1
   946,  1,      3.01,        24,        33,       -33,     0.99, 0,     100, 0, 1, 0, 0, 1, 1, 100,        33,         0, 1, 1, 0, 1, 0, 1, 0, 1, 0, 1
   679,  1,      3.84,        32,        42,       -42, 0.9945455, 0,     100, 0, 1, 0, 0, 1, 1, 100,        42,         0, 1, 1, 0, 1, 0, 1, 0, 1, 0, 1
   691,  1,      0.18,         1,         2,        -2, 0.9790909, 0,     100, 0, 1, 0, 0, 1, 1, 100,         2,         0, 1, 1, 0, 1, 0, 1, 0, 1, 0, 1
  1048,  1,      2.83,      12.6,        31,       -31,        1, 0,     100, 0, 1, 0, 0, 1, 1, 100,        31,         0, 1, 1, 0, 1, 0, 1, 0, 1, 0, 1
   488,  1,      3.29,        30,        36,       -36, 0.9881818, 0,     100, 0, 1, 0, 0, 1, 1, 100,        36,         0, 1, 1, 0, 1, 0, 1, 0, 1, 0, 1
   704,  1,      0.46,         4,         5,        -5,     0.97, 0,     100, 0, 1, 0, 0, 1, 1, 100,         5,         0, 1, 1, 0, 1, 0, 1, 0, 1, 0, 1
   522,  1,      5.66,       -48,        62,       -62, 0.9963636, 0,     100, 0, 1, 0, 0, 1, 1, 100,        62,         0, 1, 1, 0, 1, 0, 1, 0, 1, 0, 1
   477,  1,      0.91,         8,        10,       -10, 0.9818182, 0,     100, 0, 1, 0, 0, 1, 1, 100,        10,         0, 1, 1, 0, 1, 0, 1, 0, 1, 0, 1
   695,  1,      1.74,        14,        19,       -19, 0.9809091, 0,     100, 0, 1, 0, 0, 1, 1, 100,        19,         0, 1, 1, 0, 1, 0, 1, 0, 1, 0, 1
   513,  1,      3.65,        30,        40,       -40, 0.9936364, 0,     100, 0, 1, 0, 0, 1, 1, 100,        40,         0, 1, 1, 0, 1, 0, 1, 0, 1, 0, 1
    87,  1,      3.47,      8.73,        38,       -38,        1, 0,     100, 0, 1, 0, 0, 1, 1, 100,        38,         0, 1, 1, 0, 1, 0, 1, 0, 1, 0, 1
    79,  1,      0.46,         4,         5,        -5, 0.9963636, 0,     100, 0, 1, 0, 0, 1, 1, 100,         5,         0, 1, 1, 0, 1, 0, 1, 0, 1, 0, 1
   110,  1,      1.92,      6.46,        21,       -21,        1, 0,     100, 0, 1, 0, 0, 1, 1, 100,        21,         0, 1, 1, 0, 1, 0, 1, 0, 1, 0, 1
   987,  1,      3.01,      4.71,        33,       -33,        1, 0,     100, 0, 1, 0, 0, 1, 1, 100,        33,         0, 1, 1, 0, 1, 0, 1, 0, 1, 0, 1
   135,  1,      1.46,        12,        16,       -16, 0.9990909, 0,     100, 0, 1, 0, 0, 1, 1, 100,        16,         0, 1, 1, 0, 1, 0, 1, 0, 1, 0, 1
    52,  1,      0.09,       0.5,         1,        -1, 0.9790909, 0,     100, 0, 1, 0, 0, 1, 1, 100,         1,         0, 1, 1, 0, 1, 0, 1, 0, 1, 0, 1
   158,  1,      1.64,       -13,        18,       -18, 0.9972727, 0,     100, 0, 1, 0, 0, 1, 1, 100,        18,         0, 1, 1, 0, 1, 0, 1, 0, 1, 0, 1
    59,  1,     10.05,       0.3,       110,      -110,        1, 0,     100, 0, 1, 0, 0, 1, 1, 100,       110,         0, 1, 1, 0, 1, 0, 1, 0, 1, 0, 1
   142,  1,      1.37,        12,        15,       -15, 0.9918182, 0,     100, 0, 1, 0, 0, 1, 1, 100,        15,         0, 1, 1, 0, 1, 0, 1, 0, 1, 0, 1
    92,  1,      3.29,        30,        36,       -36, 0.9972727, 0,     100, 0, 1, 0, 0, 1, 1, 100,        36,         0, 1, 1, 0, 1, 0, 1, 0, 1, 0, 1
    48,  1,      0.09,       0.5,         1,        -1, 0.9736364, 0,     100, 0, 1, 0, 0, 1, 1, 100,         1,         0, 1, 1, 0, 1, 0, 1, 0, 1, 0, 1
   156,  1,      4.38,        38,        48,       -48, 0.9990909, 0,     100, 0, 1, 0, 0, 1, 1, 100,        48,         0, 1, 1, 0, 1, 0, 1, 0, 1, 0, 1
   985,  1,      5.94,     37.96,        65,       -65,        1, 0,     100, 0, 1, 0, 0, 1, 1, 100,        65,         0, 1, 1, 0, 1, 0, 1, 0, 1, 0, 1
   288,  1,      1.46,      7.29,        16,       -16,        1, 0,     100, 0, 1, 0, 0, 1, 1, 100,        16,         0, 1, 1, 0, 1, 0, 1, 0, 1, 0, 1
   220,  1,      0.64,         5,         7,        -7, 0.9990909, 0,     100, 0, 1, 0, 0, 1, 1, 100,         7,         0, 1, 1, 0, 1, 0, 1, 0, 1, 0, 1
   212,  1,      3.65,     13.35,        40,       -40,        1, 0,     100, 0, 1, 0, 0, 1, 1, 100,        40,         0, 1, 1, 0, 1, 0, 1, 0, 1, 0, 1
   885,  1,      0.46,         4,         5,        -5, 0.9936364, 0,     100, 0, 1, 0, 0, 1, 1, 100,         5,         0, 1, 1, 0, 1, 0, 1, 0, 1, 0, 1
   209,  1,      4.11,      4.34,        45,       -45,        1, 0,     100, 0, 1, 0, 0, 1, 1, 100,        45,         0, 1, 1, 0, 1, 0, 1, 0, 1, 0, 1
   173,  1,      4.38,        40,        48,       -48, 0.9981818, 0,     100, 0, 1, 0, 0, 1, 1, 100,        48,         0, 1, 1, 0, 1, 0, 1, 0, 1, 0, 1
   307,  1,       3.2,      0.94,        35,       -35,        1, 0,     100, 0, 1, 0, 0, 1, 1, 100,        35,         0, 1, 1, 0, 1, 0, 1, 0, 1, 0, 1
   912,  1,       3.2,       1.1,        35,       -35,        1, 0,     100, 0, 1, 0, 0, 1, 1, 100,        35,         0, 1, 1, 0, 1, 0, 1, 0, 1, 0, 1
   205,  1,      4.38,        40,        48,       -48, 0.9945455, 0,     100, 0, 1, 0, 0, 1, 1, 100,        48,         0, 1, 1, 0, 1, 0, 1, 0, 1, 0, 1
   926,  1,      0.82,         7,         9,        -9, 0.9809091, 0,     100, 0, 1, 0, 0, 1, 1, 100,         9,         0, 1, 1, 0, 1, 0, 1, 0, 1, 0, 1
   226,  1,      2.83,      2.63,        31,       -31,        1, 0,     100, 0, 1, 0, 0, 1, 1, 100,        31,         0, 1, 1, 0, 1, 0, 1, 0, 1, 0, 1
   905,  1,      0.91,         8,        10,       -10, 0.9945455, 0,     100, 0, 1, 0, 0, 1, 1, 100,        10,         0, 1, 1, 0, 1, 0, 1, 0, 1, 0, 1
  1182,  1,      1.46,      2.83,        16,       -16,        1, 0,     100, 0, 1, 0, 0, 1, 1, 100,        16,         0, 1, 1, 0, 1, 0, 1, 0, 1, 0, 1
  1162,  1,      8.22,       0.1,        90,       -90,        1, 0,     100, 0, 1, 0, 0, 1, 1, 100,        90,         0, 1, 1, 0, 1, 0, 1, 0, 1, 0, 1
   236,  1,      1.83,       -16,        20,       -20, 1.001818, 0,     100, 0, 1, 0, 0, 1, 1, 100,        20,         0, 1, 1, 0, 1, 0, 1, 0, 1, 0, 1
   197,  1,      1.83,       2.1,        20,       -20,        1, 0,     100, 0, 1, 0, 0, 1, 1, 100,        20,         0, 1, 1, 0, 1, 0, 1, 0, 1, 0, 1
   187,  1,      1.83,      -5.4,        20,       -20,        1, 0,     100, 0, 1, 0, 0, 1, 1, 100,        20,         0, 1, 1, 0, 1, 0, 1, 0, 1, 0, 1
   192,  1,      1.83,        16,        20,       -20, 0.9972727, 0,     100, 0, 1, 0, 0, 1, 1, 100,        20,         0, 1, 1, 0, 1, 0, 1, 0, 1, 0, 1
   949,  1,       3.2,        26,        35,       -35, 0.9936364, 0,     100, 0, 1, 0, 0, 1, 1, 100,        35,         0, 1, 1, 0, 1, 0, 1, 0, 1, 0, 1
   942,  1,      1.83,        16,        20,       -20, 0.9854545, 0,     100, 0, 1, 0, 0, 1, 1, 100,        20,         0, 1, 1, 0, 1, 0, 1, 0, 1, 0, 1
   974,  1,      1.83,        16,        20,       -20, 0.9945455, 0,     100, 0, 1, 0, 0, 1, 1, 100,        20,         0, 1, 1, 0, 1, 0, 1, 0, 1, 0, 1
   998,  1,      2.28,      5.61,        25,       -25,        1, 0,     100, 0, 1, 0, 0, 1, 1, 100,        25,         0, 1, 1, 0, 1, 0, 1, 0, 1, 0, 1
  1000,  1,       3.2,    -18.68,        35,       -35,        1, 0,     100, 0, 1, 0, 0, 1, 1, 100,        35,         0, 1, 1, 0, 1, 0, 1, 0, 1, 0, 1
   146,  1,      1.83,        16,        20,       -20, 0.9990909, 0,     100, 0, 1, 0, 0, 1, 1, 100,        20,         0, 1, 1, 0, 1, 0, 1, 0, 1, 0, 1
   121,  1,      3.65,      9.39,        40,       -40,        1, 0,     100, 0, 1, 0, 0, 1, 1, 100,        40,         0, 1, 1, 0, 1, 0, 1, 0, 1, 0, 1
   123,  1,      2.74,      2.63,        30,       -30,        1, 0,     100, 0, 1, 0, 0, 1, 1, 100,        30,         0, 1, 1, 0, 1, 0, 1, 0, 1, 0, 1
    85,  1,      1.83,      9.92,        20,       -20,        1, 0,     100, 0, 1, 0, 0, 1, 1, 100,        20,         0, 1, 1, 0, 1, 0, 1, 0, 1, 0, 1
   506,  1,      1.83,        16,        20,       -20,     0.98, 0,     100, 0, 1, 0, 0, 1, 1, 100,        20,         0, 1, 1, 0, 1, 0, 1, 0, 1, 0, 1
   517,  1,      3.65,     26.39,        40,       -40,        1, 0,     100, 0, 1, 0, 0, 1, 1, 100,        40,         0, 1, 1, 0, 1, 0, 1, 0, 1, 0, 1
   525,  1,      3.65,     27.77,        40,       -40,        1, 0,     100, 0, 1, 0, 0, 1, 1, 100,        40,         0, 1, 1, 0, 1, 0, 1, 0, 1, 0, 1
   530,  1,      1.83,        16,        20,       -20, 0.9981818, 0,     100, 0, 1, 0, 0, 1, 1, 100,        20,         0, 1, 1, 0, 1, 0, 1, 0, 1, 0, 1
   830,  1,      1.83,        16,        20,       -20, 0.9936364, 0,     100, 0, 1, 0, 0, 1, 1, 100,        20,         0, 1, 1, 0, 1, 0, 1, 0, 1, 0, 1
   891,  1,      1.83,        16,        20,       -20, 0.9845455, 0,     100, 0, 1, 0, 0, 1, 1, 100,        20,         0, 1, 1, 0, 1, 0, 1, 0, 1, 0, 1
   933,  1,      5.48,     20.56,        60,       -60,        1, 0,     100, 0, 1, 0, 0, 1, 1, 100,        60,         0, 1, 1, 0, 1, 0, 1, 0, 1, 0, 1
   471,  1,      1.83,        16,        20,       -20, 0.9981818, 0,     100, 0, 1, 0, 0, 1, 1, 100,        20,         0, 1, 1, 0, 1, 0, 1, 0, 1, 0, 1
   467,  1,      8.22,      5.95,        90,       -90,        1, 0,     100, 0, 1, 0, 0, 1, 1, 100,        90,         0, 1, 1, 0, 1, 0, 1, 0, 1, 0, 1
   656,  1,      3.47,     12.23,        38,       -38,        1, 0,     100, 0, 1, 0, 0, 1, 1, 100,        38,         0, 1, 1, 0, 1, 0, 1, 0, 1, 0, 1
   853,  1,      4.11,      8.12,        45,       -45,        1, 0,     100, 0, 1, 0, 0, 1, 1, 100,        45,         0, 1, 1, 0, 1, 0, 1, 0, 1, 0, 1
   959,  1,      6.94,      4.61,        76,       -76,        1, 0,     100, 0, 1, 0, 0, 1, 1, 100,        76,         0, 1, 1, 0, 1, 0, 1, 0, 1, 0, 1
0 / END OF GENERATOR DATA, BEGIN BRANCH DATA
   817,    816, 1,    5e-05,        0,        0,   10000,   10000,   10000, 0, 0, 0, 0, 1, 1, 0, 1, 1, 0, 1, 0, 1, 0, 1
   322,    823, 1,    5e-05,        0,        0,   10000,   10000,   10000, 0, 0, 0, 0, 1, 1, 0, 1, 1, 0, 1, 0, 1, 0, 1
   867,    868, 1,    5e-05,        0,        0,   10000,   10000,   10000, 0, 0, 0, 0, 1, 1, 0, 1, 1, 0, 1, 0, 1, 0, 1
   870,    869, 1,    5e-05,        0,        0,   10000,   10000,   10000, 0, 0, 0, 0, 1, 1, 0, 1, 1, 0, 1, 0, 1, 0, 1
   359,    360, 1,    5e-05,        0,        0,   10000,   10000,   10000, 0, 0, 0, 0, 1, 1, 0, 1, 1, 0, 1, 0, 1, 0, 1
   359,    363, 1,    5e-05,        0,        0,   10000,   10000,   10000, 0, 0, 0, 0, 1, 1, 0, 1, 1, 0, 1, 0, 1, 0, 1
   362,    361, 1,    5e-05,        0,        0,   10000,   10000,   10000, 0, 0, 0, 0, 1, 1, 0, 1, 1, 0, 1, 0, 1, 0, 1
   323,    324, 1,    5e-05,        0,        0,   10000,   10000,   10000, 0, 0, 0, 0, 1, 1, 0, 1, 1, 0, 1, 0, 1, 0, 1
   261,    250, 1,    5e-05,        0,        0,   10000,   10000,   10000, 0, 0, 0, 0, 1, 1, 0, 1, 1, 0, 1, 0, 1, 0, 1
   326,    325, 1,    5e-05,        0,        0,   10000,   10000,   10000, 0, 0, 0, 0, 1, 1, 0, 1, 1, 0, 1, 0, 1, 0, 1
   815,    784, 1,    5e-05,        0,        0,   10000,   10000,   10000, 0, 0, 0, 0, 1, 1, 0, 1, 1, 0, 1, 0, 1, 0, 1
   253,    254, 1,    5e-05,        0,        0,   10000,   10000,   10000, 0, 0, 0, 0, 1, 1, 0, 1, 1, 0, 1, 0, 1, 0, 1
   256,    255, 1,    5e-05,        0,        0,   10000,   10000,   10000, 0, 0, 0, 0, 1, 1, 0, 1, 1, 0, 1, 0, 1, 0, 1
   347,    348, 1,    5e-05,        0,        0,   10000,   10000,   10000, 0, 0, 0, 0, 1, 1, 0, 1, 1, 0, 1, 0, 1, 0, 1
   350,    349, 1,    5e-05,        0,        0,   10000,   10000,   10000, 0, 0, 0, 0, 1, 1, 0, 1, 1, 0, 1, 0, 1, 0, 1
   345,    346, 1,    5e-05,        0,        0,   10000,   10000,   10000, 0, 0, 0, 0, 1, 1, 0, 1, 1, 0, 1, 0, 1, 0, 1
   353,    352, 1,    5e-05,        0,        0,   10000,   10000,   10000, 0, 0, 0, 0, 1, 1, 0, 1, 1, 0, 1, 0, 1, 0, 1
   252,    251, 1,    5e-05,        0,        0,   10000,   10000,   10000, 0, 0, 0, 0, 1, 1, 0, 1, 1, 0, 1, 0, 1, 0, 1
   260,    259, 1,    5e-05,        0,        0,   10000,   10000,   10000, 0, 0, 0, 0, 1, 1, 0, 1, 1, 0, 1, 0, 1, 0, 1
   371,    372, 1,    5e-05,        0,        0,   10000,   10000,   10000, 0, 0, 0, 0, 1, 1, 0, 1, 1, 0, 1, 0, 1, 0, 1
   374,    373, 1,    5e-05,        0,        0,   10000,   10000,   10000, 0, 0, 0, 0, 1, 1, 0, 1, 1, 0, 1, 0, 1, 0, 1
   375,    376, 1,    5e-05,        0,        0,   10000,   10000,   10000, 0, 0, 0, 0, 1, 1, 0, 1, 1, 0, 1, 0, 1, 0, 1
   378,    377, 1,    5e-05,        0,        0,   10000,   10000,   10000, 0, 0, 0, 0, 1, 1, 0, 1, 1, 0, 1, 0, 1, 0, 1
   821,    820, 1,    5e-05,        0,        0,   10000,   10000,   10000, 0, 0, 0, 0, 1, 1, 0, 1, 1, 0, 1, 0, 1, 0, 1
   800,    801, 1,    5e-05,        0,        0,   10000,   10000,   10000, 0, 0, 0, 0, 1, 1, 0, 1, 1, 0, 1, 0, 1, 0, 1
   803,    802, 1,    5e-05,        0,        0,   10000,   10000,   10000, 0, 0, 0, 0, 1, 1, 0, 1, 1, 0, 1, 0, 1, 0, 1
   806,    805, 1,    5e-05,        0,        0,   10000,   10000,   10000, 0, 0, 0, 0, 1, 1, 0, 1, 1, 0, 1, 0, 1, 0, 1
   809,    808, 1,    5e-05,        0,        0,   10000,   10000,   10000, 0, 0, 0, 0, 1, 1, 0, 1, 1, 0, 1, 0, 1, 0, 1
   796,    795, 1,    5e-05,        0,        0,   10000,   10000,   10000, 0, 0, 0, 0, 1, 1, 0, 1, 1, 0, 1, 0, 1, 0, 1
   799,    798, 1,    5e-05,        0,        0,   10000,   10000,   10000, 0, 0, 0, 0, 1, 1, 0, 1, 1, 0, 1, 0, 1, 0, 1
   794,    793, 1,    5e-05,        0,        0,   10000,   10000,   10000, 0, 0, 0, 0, 1, 1, 0, 1, 1, 0, 1, 0, 1, 0, 1
   812,    811, 1,    5e-05,        0,        0,   10000,   10000,   10000, 0, 0, 0, 0, 1, 1, 0, 1, 1, 0, 1, 0, 1, 0, 1
   789,    790, 1,    5e-05,        0,        0,   10000,   10000,   10000, 0, 0, 0, 0, 1, 1, 0, 1, 1, 0, 1, 0, 1, 0, 1
   792,    791, 1,    5e-05,        0,        0,   10000,   10000,   10000, 0, 0, 0, 0, 1, 1, 0, 1, 1, 0, 1, 0, 1, 0, 1
   785,    786, 1,    5e-05,        0,        0,   10000,   10000,   10000, 0, 0, 0, 0, 1, 1, 0, 1, 1, 0, 1, 0, 1, 0, 1
   788,    787, 1,    5e-05,        0,        0,   10000,   10000,   10000, 0, 0, 0, 0, 1, 1, 0, 1, 1, 0, 1, 0, 1, 0, 1
   366,    367, 1,    5e-05,        0,        0,   10000,   10000,   10000, 0, 0, 0, 0, 1, 1, 0, 1, 1, 0, 1, 0, 1, 0, 1
   369,    368, 1,    5e-05,        0,        0,   10000,   10000,   10000, 0, 0, 0, 0, 1, 1, 0, 1, 1, 0, 1, 0, 1, 0, 1
   428,    429, 1,    5e-05,        0,        0,   10000,   10000,   10000, 0, 0, 0, 0, 1, 1, 0, 1, 1, 0, 1, 0, 1, 0, 1
   431,    430, 1,    5e-05,        0,        0,   10000,   10000,   10000, 0, 0, 0, 0, 1, 1, 0, 1, 1, 0, 1, 0, 1, 0, 1
   433,    434, 1,    5e-05,        0,        0,   10000,   10000,   10000, 0, 0, 0, 0, 1, 1, 0, 1, 1, 0, 1, 0, 1, 0, 1
   742,    741, 1,    5e-05,        0,        0,   10000,   10000,   10000, 0, 0, 0, 0, 1, 1, 0, 1, 1, 0, 1, 0, 1, 0, 1
   320,    321, 1,    5e-05,        0,        0,   10000,   10000,   10000, 0, 0, 0, 0, 1, 1, 0, 1, 1, 0, 1, 0, 1, 0, 1
   445,    427, 1,    5e-05,        0,        0,   10000,   10000,   10000, 0, 0, 0, 0, 1, 1, 0, 1, 1, 0, 1, 0, 1, 0, 1
   426,    425, 1,    5e-05,        0,        0,   10000,   10000,   10000, 0, 0, 0, 0, 1, 1, 0, 1, 1, 0, 1, 0, 1, 0, 1
   746,    745, 1,    5e-05,        0,        0,   10000,   10000,   10000, 0, 0, 0, 0, 1, 1, 0, 1, 1, 0, 1, 0, 1, 0, 1
   417,    416, 1,    5e-05,        0,        0,   10000,   10000,   10000, 0, 0, 0, 0, 1, 1, 0, 1, 1, 0, 1, 0, 1, 0, 1
   748,    747, 1,    5e-05,        0,        0,   10000,   10000,   10000, 0, 0, 0, 0, 1, 1, 0, 1, 1, 0, 1, 0, 1, 0, 1
   418,    419, 1,    5e-05,        0,        0,   10000,   10000,   10000, 0, 0, 0, 0, 1, 1, 0, 1, 1, 0, 1, 0, 1, 0, 1
...